%chk=D:\mindmap\gaussian\calculate\ch3n2_idea\energy.chk
%nprocshared=4
%mem=1GB
# apfd/6-311+g(2d,p) geom=connectivity pop=full int=ultrafine

Energy Calculation(GC)

0 1
C                 -0.00045906   -1.16181164    0.00000000
H                  0.93021208   -1.68978059    0.00000000
H                 -0.92195393   -1.70563808    0.00000000
N                 -0.00041551    0.07092185    0.00000000
N                 -0.00037074    1.40997651    0.00000000

1 2 1.0 3 1.0 4 2.0
2
3
4 5 2.0
5
