%nprocshared=4
%mem=1GB
# opt freq pm6 pop=full geom=connectivity

Energy Calculation(GC)

0 1
 C                 -1.86787130   -0.54052903    1.83408015
 H                 -1.32749327   -1.45029888    2.14269232
 H                 -2.08970050    0.04212598    2.74290570
 H                 -2.83321287   -0.85354862    1.40421014
 C                 -1.10071034    0.28105880    0.85831209
 O                 -1.38343354    1.31197706    0.32465073
 O                  0.11551609   -0.38979890    0.63307738
 C                  1.33713112    0.19492855    0.24861171
 O                  1.46780948    1.36845917    0.06763229
 C                  2.32377599   -0.91399020    0.13720521
 H                  1.88408465   -1.87850321    0.43830954
 H                  2.67386808   -1.04168739   -0.89980607
 H                  3.20170490   -0.72371289    0.77447134

 1 2 1.0 3 1.0 4 1.0 5 1.0
 2
 3
 4
 5 6 2.0 7 1.0
 6
 7 8 1.0
 8 9 2.0 10 1.0
 9
 10 11 1.0 12 1.0 13 1.0
 11
 12
 13

