%nprocshared=4
%mem=1GB
# opt=(calcfc,ts) freq pm6 geom=connectivity

Energy Calculation(GC)

-1 1
 O                 -1.59561768    3.09077089   -1.69165996
 H                 -1.62985528    3.16123930   -2.56150890
 C                 -2.01141286   -0.18874390   -0.82577397
 H                 -1.65475844   -1.19755390   -0.82577397
 H                 -1.65474002    0.31565429    0.04787753
 H                 -3.08141286   -0.18873071   -0.82577397
 O                 -1.53473794    0.48535836   -1.99336430
 H                 -0.75824684    3.21960391   -1.50336953

 1 2 1.0 8 1.0
 2
 3 4 1.0 5 1.0 6 1.0 7 1.0
 4
 5
 6
 7
 8

