%chk=D:\mindmap\gaussian\calculate\opt_freq\C6H5COH\C6H5OH.chk
# opt freq apfd/6-311+g(2d,p)  int=ultrafine

opt freq(GC)

0 1
 C                  0.40239512    1.29539458    0.00000000
 C                  1.76683918    1.03011221    0.00000000
 C                  2.21931994   -0.28417220    0.00000000
 C                  1.30735664   -1.33317423    0.00000000
 C                 -0.05708742   -1.06789186    0.00000000
 C                 -0.50956818    0.24639255    0.00000000
 H                  0.04905818    2.32170394    0.00000000
 H                  2.47898069    1.84926565    0.00000000
 H                  3.28479839   -0.49132810    0.00000000
 H                  1.66069358   -2.35948359    0.00000000
 H                 -0.76922893   -1.88704530    0.00000000
 C                 -2.02126132    0.54030385    0.00000000
 O                 -2.87308682   -0.44345171    0.00000000
 H                 -2.36757107    1.55271165    0.00000000

