%chk=D:\mindmap\gaussian\calculate\ch3n2_60degree\energy.chk
%nprocshared=4
%mem=1GB
# apfd/6-311+g(2d,p) geom=connectivity pop=full int=ultrafine

Energy Calculation(GC)

0 1
C                  0.00072835   -0.87641806    0.08574928
H                  0.92507333   -1.38707926   -0.08662099
H                 -0.92698777   -1.38885814   -0.06138318
N                  0.00165178    0.61043509    0.86474369
N                 -0.00200259    0.53734288   -0.91709962

1 2 1.0 3 1.0 4 2.0
2
3
4 5 2.0
5

