%nprocshared=4
%mem=1GB
%chk=D:\mindmap\gaussian\calculate\opt_freq\ch3cooh\3f.chk
# opt freq pm6

opt freq(GC)

0 1
 C                 -2.32001306   -1.60102810    0.64924132
 C                 -1.08886780   -0.90387796    1.25740497
 O                 -1.08132759    0.34456532    1.41521211
 O                  0.04967786   -1.67786632    1.64412940
 H                  0.72515199   -1.09732490    2.00232819
 F                 -3.26379262   -0.67903337    0.36339894
 F                 -2.81513676   -2.49247015    1.53393538
 F                 -1.96036080   -2.24271922   -0.48274046

