%nprocshared=4
%mem=1GB
%chk=D:\mindmap\gaussian\calculate\opt_freq\ch3cooh/ch3cooh.chk
# opt freq pm6

opt freq(GC)

0 1
 C                 -2.32001306   -1.60102810    0.64924132
 H                 -2.71244444   -2.30757847    1.35044328
 H                 -2.03495534   -2.10962773   -0.24795905
 H                 -3.06804575   -0.87026191    0.42268477
 C                 -1.08886780   -0.90387796    1.25740497
 O                 -1.08132759    0.34456532    1.41521211
 O                  0.04967786   -1.67786632    1.64412940
 H                  0.72515199   -1.09732490    2.00232819

