%chk=D:\mindmap\gaussian\calculate\ch3n2_perpendicular\energy.chk
%nprocshared=4
%mem=1GB
# apfd/6-311+g(2d,p) geom=connectivity pop=full int=ultrafine

Energy Calculation(GC)

0 1
 C                 -1.95359434   -0.49323478    0.41875722
 H                 -2.89388521   -0.88844989    0.09540277
 H                 -1.42954828   -0.95824035    1.22748804
 N                 -1.46603619    0.49663394   -0.13351512
 N                 -0.93648799    1.57176092   -0.73335789

 1 2 1.0 3 1.0 4 2.0
 2
 3
 4 5 2.0

 
