%nprocshared=4
%mem=1GB
# irc=(calcfc,maxpoints=50,stepsize=5,LQA)  pm6 geom=connectivity

Energy Calculation(GC)

-1 1
 C                  1.32782100   -1.18427200    0.01250500
 H                  1.12333400   -1.78448200   -0.86565700
 H                  1.13572200   -1.75175700    0.91364100
 H                  2.51108300   -0.87339700   -0.01470400
 C                  0.81153900    0.18933000   -0.01317100
 H                  0.95855500    0.78973500    0.88810500
 H                  0.96081200    0.75191200   -0.94109300
 Br                -1.36793100    0.09334900    0.00243500
 O                  3.09337000    0.58418700   -0.08001100
 H                  3.60496800    0.89692300    0.57857100

 1 2 1.0 3 1.0 5 1.0
 2
 3
 4
 5 6 1.0 7 1.0
 6
 7
 8
 9 10 1.0
 10

