%nprocshared=4
%mem=1GB
# opt=(calcfc,ts,noeigen) freq pm6

Energy Calculation(GC)

-1 1
 C                 -0.22744326   -0.27901177   -0.99223155
 O                  0.34008444    0.80258081   -1.07853716
 N                  0.20686722   -0.40820830    0.95576297
 H                 -0.50861522   -0.41866385    1.65431544
 H                  1.06692020   -0.10226487    1.36406127
 C                  0.39846218   -1.56404342   -1.21700575
 H                  0.07061073   -2.03089090   -2.12224984
 H                  1.45754211   -1.41640756   -1.25512854
 H                  0.15542189   -2.19051704   -0.38432201
 C                 -1.83408185   -0.28413622   -0.65795367
 H                 -2.30571843   -0.78857025   -1.47526954
 H                 -2.06710666   -0.79000439    0.25566378
 H                 -2.18939395    0.72391722   -0.60813815

