%chk=D:\mindmap\gaussian\calculate\opt_freq\H2O\H2O.chk
%nprocshared=4
%mem=1GB
# opt freq apfd/6-311+g(2d,p) pop=full  int=ultrafine

opt freq(GC)

0 1
 O                 -1.34438312    0.11970534    0.00000000
 H                 -0.38438312    0.11970534    0.00000000
 H                 -1.66483771    1.02464117    0.00000000

 







 