%chk=D:\mindmap\gaussian\calculate\opt_freq\3OHN\3OHN.chk
%nprocshared=4
%mem=1GB
# opt freq apfd/6-311+g(2d,p) scrf=(solvent=water)  int=ultrafine

opt freq(WATER)


0 1
 C                 -9.23561362    0.00139312   -2.91687279
 C                 -9.70481962    1.44571312   -3.02046279
 H                 -9.62757562   -0.60105188   -3.77438079
 H                 -9.62572862   -0.46901788   -1.97936879
 H                 -8.43360162    2.91641112   -4.00779479
 H                -10.35719762    1.70751512   -2.14979879
 H                -10.31656562    1.59333512   -3.94566579
 C                 -7.24498262    1.44925812   -2.91687279
 H                 -6.58356377    1.61771087   -3.74091695
 H                 -6.73603774    1.66595493   -2.00094834
 C                 -7.71375562    0.00139312   -2.91687279
 H                 -7.35075753   -0.49847278   -3.79052402
 N                 -8.47272262    2.33882612   -3.05005879
 O                 -7.22762672   -0.66592428   -1.74928289
 H                 -6.68314785   -1.41232786   -2.01009788







 