%nprocshared=4
%mem=1GB
%chk=D:\mindmap\gaussian\calculate\opt_freq\QM1\nbo.chk
# opt freq b3lyp/6-311g pop=savenbo

Energy Calculation(GC)

0 1
 C                 -1.41040397    0.08456676    0.00000000
 N                 -0.43264437   -0.86231919    0.00000000
 C                  0.83472013   -0.39868645    0.00000000
 C                  1.13303268    0.97771455    0.00000000
 C                  0.03968552    1.86541309    0.00000000
 N                 -1.23930786    1.43491556    0.00000000
 H                  0.18768260    2.96009580    0.00000000
 Cl                -3.07099016   -0.49857432    0.00000000
 Cl                 2.10920210   -1.61248038    0.00000000
 C                  2.58606653    1.48790335    0.00000000
 H                  3.08969827    1.13014271    0.87364626
 H                  3.08969827    1.13014271   -0.87364626
 H                  2.58838321    2.55790085    0.00000000







