%nprocshared=4
%mem=1GB
%chk=D:\mindmap\gaussian\calculate\opt_freq\QM1\QM1.chk
# opt freq pm6 pop=full geom=connectivity

Energy Calculation(GC)

0 1
 C                 -2.02278874   -1.01177497    0.00000000
 N                 -0.66168374   -1.01177497    0.00000000
 C                 -0.07380074    0.20295203    0.00000000
 C                 -0.81703274    1.39922803   -0.00000100
 C                 -2.21999574    1.27629903   -0.00002400
 N                 -2.83928374    0.07728503    0.00003300
 H                 -2.87522374    2.16563003   -0.00002000
 Cl                -2.81000648   -2.58590592   -0.00004441
 Cl                 1.68613798    0.21763891   -0.00003665
 C                 -0.12816069    2.77656433    0.00000603
 H                  0.48251725    2.86991921    0.87365202
 H                  0.48249869    2.86993741   -0.87365099
 H                 -0.87086638    3.54681641    0.00002194

 1 2 2.0 6 2.0 8 1.0
 2 3 2.0
 3 4 1.5 9 1.0
 4 5 1.5 10 1.0
 5 6 2.0 7 1.0
 6
 7
 8
 9
 10 11 1.0 12 1.0 13 1.0
 11
 12
 13

