%nprocshared=4
%mem=1GB

# opt freq pm6 geom=connectivity pop=full

Energy Calculation(GC)

0 1
 O                 -1.14340260   -0.34243027   -0.66591139
 C                  0.24621579   -0.67538219   -0.72071773
 C                 -1.36444781    0.61056673    0.37708225
 O                 -2.29952319    1.44680080    0.27749728
 O                  0.77151376   -1.00510576   -1.81566749
 C                  1.09988074   -0.63043794    0.56023354
 H                  1.52188557    0.34627976    0.67352286
 H                  0.48473019   -0.85357848    1.40681378
 H                  1.88615732   -1.35278758    0.49037560
 C                 -0.45817347    0.61350781    1.62217589
 H                 -0.10851552   -0.37993291    1.81115961
 H                  0.37774306    1.25975966    1.45335027
 H                 -1.01406385    0.96274016    2.46711533

 1 2 1.0 3 1.0
 2 5 2.0 6 1.0
 3 4 2.0 10 1.0
 4
 5
 6 7 1.0 8 1.0 9 1.0
 7
 8
 9
 10 11 1.0 12 1.0 13 1.0
 11
 12
 13

